Version 4
SHEET 1 7988 2640
WIRE 1408 -400 1408 -464
WIRE 1808 -400 1808 -464
WIRE 80 -384 80 -448
WIRE 480 -384 480 -448
WIRE 2528 -384 2528 -448
WIRE 2896 -304 2896 -368
WIRE 3424 -304 3424 -368
WIRE 480 -48 464 -48
WIRE 560 -48 544 -48
WIRE 480 48 464 48
WIRE 560 48 544 48
WIRE 496 224 480 224
WIRE 592 224 576 224
WIRE 1120 240 1104 240
WIRE 1216 240 1200 240
WIRE 496 320 480 320
WIRE 592 320 576 320
WIRE 1120 336 1104 336
WIRE 1216 336 1200 336
WIRE 3840 368 3696 368
WIRE 1392 384 1392 368
WIRE 1440 384 1392 384
WIRE 1536 384 1504 384
WIRE 4160 384 4096 384
WIRE 3840 400 3696 400
WIRE -48 416 -144 416
WIRE 64 416 -48 416
WIRE 4160 416 4160 384
WIRE 736 448 704 448
WIRE 784 448 736 448
WIRE 1536 480 1536 464
WIRE 1600 480 1536 480
WIRE 3840 496 3776 496
WIRE 1536 512 1536 480
WIRE 3776 512 3776 496
WIRE 64 528 16 528
WIRE 4160 528 4160 496
WIRE 4016 560 4016 528
WIRE 16 576 16 528
WIRE 736 576 704 576
WIRE 784 576 736 576
WIRE 1440 592 1392 592
WIRE 1536 592 1504 592
WIRE 1392 624 1392 592
WIRE 16 672 16 656
FLAG 1408 -320 0
FLAG 1808 -320 0
FLAG 1408 -464 vcc5
FLAG 1808 -464 vee5
FLAG 1216 336 fbOut2+
FLAG 1216 240 fbOut2-
FLAG 1024 512 0
FLAG 1184 480 Out2+
FLAG 1184 544 Out2-
FLAG 3920 304 vcc5
FLAG 4016 304 vcc3
FLAG 4016 560 0
FLAG 4160 528 0
FLAG 4160 384 Vout
FLAG 3696 368 compin-
FLAG 3696 400 compin+
FLAG 2896 -224 0
FLAG 3424 -224 0
FLAG 2896 -368 vcc15
FLAG 3424 -368 vee15
FLAG 2400 304 filter_in_10k+
FLAG 2400 336 filter_in_10k-
FLAG 2400 368 filter_in_100k+
FLAG 2400 432 filter_in_1Meg+
FLAG 2400 496 filter_in_10Meg+
FLAG 2400 560 filter_in_100Meg+
FLAG 2400 400 filter_in_100k-
FLAG 2400 464 filter_in_1Meg-
FLAG 2400 592 filter_in_100Meg-
FLAG 2400 528 filter_in_10Meg-
FLAG 2736 304 filter_out_10k+
FLAG 2736 336 filter_out_10k-
FLAG 2736 368 filter_out_100k+
FLAG 2736 432 filter_out_1Meg+
FLAG 2736 496 filter_out_10Meg+
FLAG 2736 560 filter_out_100Meg+
FLAG 2736 400 filter_out_100k-
FLAG 2736 464 filter_out_1Meg-
FLAG 2736 592 filter_out_100Meg-
FLAG 2736 528 filter_out_10Meg-
FLAG 3840 448 vcc
FLAG 3776 592 0
FLAG 2528 -304 0
FLAG 2528 -448 vcc3
FLAG 1024 480 In2-
FLAG 1104 240 In2+
FLAG 1104 336 In2-
FLAG 3696 480 0
FLAG 3696 288 0
FLAG 1776 1216 Out2+
FLAG 1776 1248 Out2-
FLAG 1920 1200 filter_in_100Meg+
FLAG 1920 1232 filter_in_100Meg-
FLAG 3424 1168 compin+
FLAG 3424 1200 compin-
FLAG 3280 1184 filter_out_100Meg+
FLAG 3280 1216 filter_out_100Meg-
FLAG 1776 880 Out2+
FLAG 1776 912 Out2-
FLAG 1920 864 filter_in_10Meg+
FLAG 1920 896 filter_in_10Meg-
FLAG 1776 944 0
FLAG 1776 976 0
FLAG 3392 848 compin+
FLAG 3392 880 compin-
FLAG 3248 864 filter_out_10Meg+
FLAG 3248 896 filter_out_10Meg-
FLAG 3248 960 0
FLAG 3248 928 0
FLAG 1776 576 Out2+
FLAG 1776 608 Out2-
FLAG 1920 560 filter_in_1Meg+
FLAG 1920 592 filter_in_1Meg-
FLAG 1776 272 Out2+
FLAG 1776 304 Out2-
FLAG 1920 256 filter_in_100k+
FLAG 1920 288 filter_in_100k-
FLAG 1776 336 0
FLAG 1776 368 0
FLAG 1776 640 0
FLAG 1776 672 0
FLAG 3408 592 compin+
FLAG 3408 624 compin-
FLAG 3392 288 compin+
FLAG 3392 320 compin-
FLAG 3248 400 0
FLAG 3248 368 0
FLAG 3264 608 filter_out_1Meg+
FLAG 3264 640 filter_out_1Meg-
FLAG 3264 672 0
FLAG 3264 704 0
FLAG 3248 304 filter_out_100k+
FLAG 3248 336 filter_out_100k-
FLAG 1776 -64 Out2+
FLAG 1776 -32 Out2-
FLAG 1920 -80 filter_in_10k+
FLAG 1920 -48 filter_in_10k-
FLAG 3392 -16 compin+
FLAG 3392 16 compin-
FLAG 3248 0 filter_out_10k+
FLAG 3248 32 filter_out_10k-
FLAG 1920 624 vcc15
FLAG 1920 656 0
FLAG 1920 688 vee15
FLAG 80 -304 0
FLAG 480 -304 0
FLAG 80 -448 vcc2
FLAG 480 -448 vee2
FLAG 1920 320 vcc15
FLAG 1920 352 0
FLAG 1920 384 vee15
FLAG 1920 -16 vcc15
FLAG 1920 16 0
FLAG 1920 48 vee15
FLAG 1920 928 vcc15
FLAG 1920 960 0
FLAG 1920 992 vee15
FLAG 1920 1264 vcc15
FLAG 1920 1296 0
FLAG 1920 1328 vee15
FLAG 3392 48 vcc15
FLAG 3392 80 0
FLAG 3392 112 vee15
FLAG 3392 352 vcc15
FLAG 3392 384 0
FLAG 3392 416 vee15
FLAG 3424 1232 vcc15
FLAG 3424 1264 0
FLAG 3424 1296 vee15
FLAG 3392 912 vcc15
FLAG 3392 944 0
FLAG 3392 976 vee15
FLAG 3408 656 vcc15
FLAG 3408 688 0
FLAG 3408 720 vee15
FLAG 1056 592 vee2
FLAG 1056 432 vcc2
FLAG 1088 592 vcc2
FLAG 1024 544 In2+
FLAG 1600 480 0
FLAG 1392 384 fbOut2+
FLAG 1392 592 fbOut2-
FLAG 1392 288 Out2+
FLAG 1392 704 Out2-
FLAG 1776 0 vcc3
FLAG 1776 32 vcc3
FLAG 3248 64 vcc3
FLAG 3248 96 vcc3
FLAG 1776 1280 0
FLAG 1776 1312 0
FLAG 3280 1248 0
FLAG 3280 1280 0
FLAG 144 528 In-
FLAG 144 416 In+
FLAG 592 320 Out+
FLAG 592 224 Out-
FLAG 320 464 In-
FLAG 320 528 In+
FLAG 864 576 In2-
FLAG 864 448 In2+
FLAG 736 448 C2out+
FLAG 736 576 C2out-
FLAG 640 448 Out+
FLAG 640 576 Out-
FLAG 320 496 0
FLAG 384 576 vcc2
FLAG 480 464 Out+
FLAG 480 528 Out-
FLAG -48 416 C1out
FLAG 560 48 Out-
FLAG 560 -48 Out+
FLAG -48 496 0
FLAG 464 48 In+
FLAG 464 -48 In-
FLAG 480 224 In+
FLAG 480 320 In-
FLAG 16 672 0
FLAG 352 576 vee2
FLAG 352 416 vcc2
FLAG -208 416 0
SYMBOL Misc\\battery 1808 -416 R0
WINDOW 123 0 0 Left 0
WINDOW 39 0 0 Left 0
WINDOW 0 49 53 Left 2
SYMATTR InstName Vee5_fix
SYMATTR Value -5
SYMBOL Misc\\battery 1408 -416 R0
WINDOW 0 -139 46 Left 2
SYMATTR InstName Vcc5_fix
SYMATTR Value 5
SYMBOL res 1216 320 R90
WINDOW 0 0 56 VBottom 2
WINDOW 3 32 56 VTop 2
SYMATTR InstName Rf2-
SYMATTR Value 2.49k
SYMBOL res 1216 224 R90
WINDOW 0 0 56 VBottom 2
WINDOW 3 32 56 VTop 2
SYMATTR InstName Rf2+
SYMATTR Value 2.49k
SYMBOL Opamps\\LTC6419 1088 512 R0
SYMATTR InstName U2
SYMBOL Comparators\\LTC6752-2 3968 416 R0
SYMATTR InstName U5
SYMBOL res 4144 400 R0
SYMATTR InstName R5
SYMATTR Value 100Meg
SYMBOL Misc\\battery 3424 -320 R0
WINDOW 123 0 0 Left 0
WINDOW 39 0 0 Left 0
WINDOW 0 -115 47 Left 2
SYMATTR InstName Vee15
SYMATTR Value -15
SYMBOL Misc\\battery 2896 -320 R0
WINDOW 0 -108 54 Left 2
SYMATTR InstName Vcc15
SYMATTR Value 15
SYMBOL res 3792 608 R180
WINDOW 0 36 76 Left 2
WINDOW 3 36 40 Left 2
SYMATTR InstName Rcomp1
SYMATTR Value 481k
SYMBOL Misc\\battery 2528 -400 R0
WINDOW 0 -144 55 Left 2
SYMATTR InstName Vcc3_fix
SYMATTR Value 3.3
SYMBOL res 3680 272 R0
SYMATTR InstName R3
SYMATTR Value 12
SYMBOL res 3680 384 R0
SYMATTR InstName R4
SYMATTR Value 12
SYMBOL Misc\\battery 480 -400 R0
WINDOW 123 0 0 Left 0
WINDOW 39 0 0 Left 0
WINDOW 0 49 53 Left 2
SYMATTR InstName Vee2
SYMATTR Value -2.5
SYMBOL Misc\\battery 80 -400 R0
WINDOW 0 -139 46 Left 2
SYMATTR InstName Vcc2_fix
SYMATTR Value 2.5
SYMBOL AutoGenerated\\ADG1421 1840 -16 R0
SYMATTR InstName U15
SYMBOL AutoGenerated\\ADG1421 1840 320 R0
SYMATTR InstName U12
SYMBOL AutoGenerated\\ADG1421 1840 624 R0
SYMATTR InstName U7
SYMBOL AutoGenerated\\ADG1421 1840 928 R0
SYMATTR InstName U9
SYMBOL AutoGenerated\\ADG1421 1840 1264 R0
SYMATTR InstName U11
SYMBOL AutoGenerated\\ADG1421 3312 48 R0
SYMATTR InstName U8
SYMBOL AutoGenerated\\ADG1421 3312 352 R0
SYMATTR InstName U10
SYMBOL AutoGenerated\\ADG1421 3328 656 R0
SYMATTR InstName U13
SYMBOL AutoGenerated\\ADG1421 3312 912 R0
SYMATTR InstName U14
SYMBOL AutoGenerated\\ADG1421 3344 1232 R0
SYMATTR InstName U16
SYMBOL filters_diff 2560 448 R0
SYMATTR InstName X2
SYMBOL voltage 1536 368 R0
WINDOW 123 39 80 Left 2
WINDOW 39 0 0 Left 0
SYMATTR Value2 AC 0.5
SYMATTR InstName V1
SYMATTR Value ""
SYMBOL cap 1504 368 R90
WINDOW 0 0 32 VBottom 2
WINDOW 3 32 32 VTop 2
SYMATTR InstName C1
SYMATTR Value 1T
SYMBOL cap 1504 576 R90
WINDOW 0 0 32 VBottom 2
WINDOW 3 32 32 VTop 2
SYMATTR InstName C2
SYMATTR Value 1T
SYMBOL voltage 1536 496 R0
WINDOW 123 24 124 Left 2
WINDOW 39 0 0 Left 0
SYMATTR Value2 AC 0.5
SYMATTR InstName V3
SYMATTR Value ""
SYMBOL ind 1376 272 R0
SYMATTR InstName L1
SYMATTR Value 1T
SYMBOL ind 1376 608 R0
SYMATTR InstName L2
SYMATTR Value 1T
SYMBOL res 160 512 R90
WINDOW 0 0 56 VBottom 2
WINDOW 3 32 56 VTop 2
SYMATTR InstName Rg1
SYMATTR Value 49.9
SYMBOL res 592 304 R90
WINDOW 0 0 56 VBottom 2
WINDOW 3 32 56 VTop 2
SYMATTR InstName Rf1
SYMATTR Value 348
SYMBOL res 592 208 R90
WINDOW 0 0 56 VBottom 2
WINDOW 3 32 56 VTop 2
SYMATTR InstName Rf2
SYMATTR Value 348
SYMBOL res 880 432 R90
WINDOW 0 0 56 VBottom 2
WINDOW 3 32 56 VTop 2
SYMATTR InstName Rg2
SYMATTR Value 24.9
SYMBOL res 880 560 R90
WINDOW 0 0 56 VBottom 2
WINDOW 3 32 56 VTop 2
SYMATTR InstName Rg3
SYMATTR Value 24.9
SYMBOL Opamps\\LTC6419 384 496 R0
SYMATTR InstName U1
SYMBOL res 160 400 R90
WINDOW 0 0 56 VBottom 2
WINDOW 3 32 56 VTop 2
SYMATTR InstName Rg4
SYMATTR Value 49.9
SYMBOL cap 544 32 R90
WINDOW 0 0 32 VBottom 2
WINDOW 3 32 32 VTop 2
SYMATTR InstName Cf1
SYMATTR Value 1p
SYMBOL cap 544 -64 R90
WINDOW 0 0 32 VBottom 2
WINDOW 3 32 32 VTop 2
SYMATTR InstName Cf2
SYMATTR Value 1p
SYMBOL res -64 400 R0
SYMATTR InstName R1
SYMATTR Value 115
SYMBOL res 0 560 R0
SYMATTR InstName R2
SYMATTR Value 34.8
SYMBOL cap -144 400 R90
WINDOW 0 0 32 VBottom 2
WINDOW 3 32 32 VTop 2
SYMATTR InstName C3
SYMATTR Value 330µ
SYMBOL cap 704 432 R90
WINDOW 0 0 32 VBottom 2
WINDOW 3 32 32 VTop 2
SYMATTR InstName C4
SYMATTR Value 330µ
SYMBOL cap 704 560 R90
WINDOW 0 0 32 VBottom 2
WINDOW 3 32 32 VTop 2
SYMATTR InstName C5
SYMATTR Value 330µ
TEXT 392 928 Left 2 !.ac dec 1000 1 10G
