Version 4
SHEET 1 1940 2488
WIRE -624 -3376 -624 -3440
WIRE -544 -3376 -624 -3376
WIRE -1728 -3360 -1728 -3424
WIRE -1648 -3360 -1728 -3360
WIRE -3008 -3344 -3008 -3408
WIRE -2928 -3344 -3008 -3344
WIRE -1248 -3344 -1248 -3408
WIRE -1248 -3344 -1328 -3344
WIRE -2368 -3328 -2368 -3392
WIRE -2368 -3328 -2448 -3328
WIRE -544 -3296 -544 -3312
WIRE -1648 -3280 -1648 -3296
WIRE -2928 -3264 -2928 -3280
WIRE -1328 -3264 -1328 -3280
WIRE -2448 -3248 -2448 -3264
WIRE 896 -2464 896 -2528
WIRE 976 -2464 896 -2464
WIRE 1072 -2464 976 -2464
WIRE 1424 -2464 1424 -2528
WIRE 1536 -2464 1424 -2464
WIRE 1632 -2464 1536 -2464
WIRE -2016 -2432 -2032 -2432
WIRE -1936 -2432 -1952 -2432
WIRE 976 -2384 976 -2400
WIRE 1072 -2384 1072 -2400
WIRE 1536 -2384 1536 -2400
WIRE 1632 -2384 1632 -2400
WIRE -2016 -2336 -2032 -2336
WIRE -1936 -2336 -1952 -2336
WIRE -2000 -2160 -2016 -2160
WIRE -1904 -2160 -1920 -2160
WIRE -1408 -2144 -1424 -2144
WIRE -1312 -2144 -1328 -2144
WIRE -2000 -2064 -2016 -2064
WIRE -1904 -2064 -1920 -2064
WIRE -1408 -2048 -1424 -2048
WIRE -1312 -2048 -1328 -2048
WIRE 1504 -2032 1360 -2032
WIRE 1824 -2016 1760 -2016
WIRE 1504 -2000 1360 -2000
WIRE 1824 -1984 1824 -2016
WIRE -2896 -1968 -2976 -1968
WIRE -2800 -1968 -2816 -1968
WIRE -2704 -1968 -2800 -1968
WIRE -2544 -1968 -2640 -1968
WIRE -2432 -1968 -2544 -1968
WIRE -1760 -1936 -1792 -1936
WIRE -1712 -1936 -1760 -1936
WIRE 1504 -1904 1440 -1904
WIRE 1440 -1888 1440 -1904
WIRE 1824 -1872 1824 -1904
WIRE -2432 -1856 -2480 -1856
WIRE 1680 -1840 1680 -1872
WIRE -2480 -1808 -2480 -1856
WIRE -1760 -1808 -1792 -1808
WIRE -1712 -1808 -1760 -1808
WIRE -2480 -1712 -2480 -1728
FLAG -2352 -1856 In-
FLAG -2352 -1968 In+
FLAG -1728 -3280 0
FLAG -1248 -3264 0
FLAG -1648 -3280 0
FLAG -1328 -3264 0
FLAG -1728 -3424 vcc5_fix
FLAG -1248 -3408 vee5_fix
FLAG -1904 -2064 Out+
FLAG -1904 -2160 Out-
FLAG -2176 -1920 In-
FLAG -2176 -1856 In+
FLAG -1632 -1808 In2-
FLAG -1632 -1936 In2+
FLAG -1760 -1936 C2out+
FLAG -1760 -1808 C2out-
FLAG -1856 -1936 Out+
FLAG -1856 -1808 Out-
FLAG -2176 -1888 0
FLAG -2112 -1808 vcc2
FLAG -2016 -1920 Out+
FLAG -2016 -1856 Out-
FLAG -2800 -1968 C1in
FLAG -2544 -1968 C1out
FLAG -1312 -2048 Out2+
FLAG -1312 -2144 Out2-
FLAG -1504 -1872 0
FLAG -1344 -1904 Out2+
FLAG -1344 -1840 Out2-
FLAG 1584 -2096 vcc5
FLAG 1680 -2096 vcc3
FLAG 1680 -1840 0
FLAG 1824 -1872 0
FLAG 1824 -2016 Vout
FLAG 1360 -2032 compin-
FLAG 1360 -2000 compin+
FLAG 896 -2384 0
FLAG 1424 -2384 0
FLAG 896 -2528 vcc15
FLAG 1424 -2528 vee15
FLAG 976 -2384 0
FLAG 1536 -2384 0
FLAG -192 -2128 filter_in_10k+
FLAG -192 -2096 filter_in_10k-
FLAG -192 -2064 filter_in_100k+
FLAG -192 -2000 filter_in_1Meg+
FLAG -192 -1936 filter_in_10Meg+
FLAG -192 -1872 filter_in_100Meg+
FLAG -192 -2032 filter_in_100k-
FLAG -192 -1968 filter_in_1Meg-
FLAG -192 -1840 filter_in_100Meg-
FLAG -192 -1904 filter_in_10Meg-
FLAG 144 -2128 filter_out_10k+
FLAG 144 -2096 filter_out_10k-
FLAG 144 -2064 filter_out_100k+
FLAG 144 -2000 filter_out_1Meg+
FLAG 144 -1936 filter_out_10Meg+
FLAG 144 -1872 filter_out_100Meg+
FLAG 144 -2032 filter_out_100k-
FLAG 144 -1968 filter_out_1Meg-
FLAG 144 -1840 filter_out_100Meg-
FLAG 144 -1904 filter_out_10Meg-
FLAG 1504 -1952 vcc
FLAG 1440 -1808 0
FLAG -624 -3296 0
FLAG -544 -3296 0
FLAG -624 -3440 vcc3_fix
FLAG -2976 -1968 Vin
FLAG -1936 -2336 Out-
FLAG -1936 -2432 Out+
FLAG -2544 -1888 0
FLAG -2032 -2336 In+
FLAG -2032 -2432 In-
FLAG -2016 -2160 In+
FLAG -2016 -2064 In-
FLAG -1504 -1904 In2-
FLAG -1424 -2144 In2+
FLAG -1424 -2048 In2-
FLAG -2480 -1712 0
FLAG 1360 -1920 0
FLAG 1360 -2112 0
FLAG -816 -896 Out2+
FLAG -816 -864 Out2-
FLAG -672 -912 filter_in_100Meg+
FLAG -672 -880 filter_in_100Meg-
FLAG 944 -1008 compin+
FLAG 944 -976 compin-
FLAG 800 -992 filter_out_100Meg+
FLAG 800 -960 filter_out_100Meg-
FLAG -816 -1232 Out2+
FLAG -816 -1200 Out2-
FLAG -672 -1248 filter_in_10Meg+
FLAG -672 -1216 filter_in_10Meg-
FLAG -816 -1168 0
FLAG -816 -1136 0
FLAG 912 -1328 compin+
FLAG 912 -1296 compin-
FLAG 768 -1312 filter_out_10Meg+
FLAG 768 -1280 filter_out_10Meg-
FLAG 768 -1216 0
FLAG 768 -1248 0
FLAG -816 -1536 Out2+
FLAG -816 -1504 Out2-
FLAG -672 -1552 filter_in_1Meg+
FLAG -672 -1520 filter_in_1Meg-
FLAG -816 -1840 Out2+
FLAG -816 -1808 Out2-
FLAG -672 -1856 filter_in_100k+
FLAG -672 -1824 filter_in_100k-
FLAG -816 -1776 0
FLAG -816 -1744 0
FLAG -816 -1472 0
FLAG -816 -1440 0
FLAG 928 -1584 compin+
FLAG 928 -1552 compin-
FLAG 912 -1888 compin+
FLAG 912 -1856 compin-
FLAG 768 -1776 0
FLAG 768 -1808 0
FLAG 784 -1568 filter_out_1Meg+
FLAG 784 -1536 filter_out_1Meg-
FLAG 784 -1504 0
FLAG 784 -1472 0
FLAG 768 -1872 filter_out_100k+
FLAG 768 -1840 filter_out_100k-
FLAG -816 -2176 Out2+
FLAG -816 -2144 Out2-
FLAG -672 -2192 filter_in_10k+
FLAG -672 -2160 filter_in_10k-
FLAG 912 -2192 compin+
FLAG 912 -2160 compin-
FLAG 768 -2176 filter_out_10k+
FLAG 768 -2144 filter_out_10k-
FLAG -672 -1488 vcc15
FLAG -672 -1456 0
FLAG -672 -1424 vee15
FLAG 1072 -2384 0
FLAG 1632 -2384 0
FLAG -3008 -3264 0
FLAG -2368 -3248 0
FLAG -2928 -3264 0
FLAG -2448 -3248 0
FLAG -3008 -3408 vcc2_fix
FLAG -2368 -3392 vee2_fix
FLAG -816 -832 vcc3
FLAG -816 -800 vcc3
FLAG -672 -1792 vcc15
FLAG -672 -1760 0
FLAG -672 -1728 vee15
FLAG -672 -2128 vcc15
FLAG -672 -2096 0
FLAG -672 -2064 vee15
FLAG -672 -1184 vcc15
FLAG -672 -1152 0
FLAG -672 -1120 vee15
FLAG -672 -848 vcc15
FLAG -672 -816 0
FLAG -672 -784 vee15
FLAG 912 -2128 vcc15
FLAG 912 -2096 0
FLAG 912 -2064 vee15
FLAG 912 -1824 vcc15
FLAG 912 -1792 0
FLAG 912 -1760 vee15
FLAG 944 -944 vcc15
FLAG 944 -912 0
FLAG 944 -880 vee15
FLAG 912 -1264 vcc15
FLAG 912 -1232 0
FLAG 912 -1200 vee15
FLAG 928 -1520 vcc15
FLAG 928 -1488 0
FLAG 928 -1456 vee15
FLAG -1472 -1792 vee2
FLAG -1472 -1952 vcc2
FLAG -1440 -1792 vcc2
FLAG -2144 -1808 vee2
FLAG -2144 -1968 vcc2
FLAG -1504 -1840 In2+
FLAG -3088 -1856 Vin
FLAG -3008 -3056 0
FLAG -3008 -2864 0
FLAG -2384 -2864 0
FLAG -2368 -3056 0
FLAG -3008 -3136 Vcc2
FLAG -2368 -3136 Vee2
FLAG -3008 -2944 Vcc2_n
FLAG -2384 -2944 Vee2_n
FLAG -1728 -3072 0
FLAG -1728 -2880 0
FLAG -1728 -3152 Vcc5
FLAG -1728 -2960 Vcc5_n
FLAG -1248 -3072 0
FLAG -1248 -2880 0
FLAG -1248 -3152 Vee5
FLAG -1248 -2960 Vee5_n
FLAG -624 -3088 0
FLAG -624 -2896 0
FLAG -624 -3168 Vcc3
FLAG -624 -2976 Vcc3_n
FLAG -3088 -1776 0
FLAG -816 -2112 0
FLAG -816 -2080 0
FLAG 768 -2112 0
FLAG 768 -2080 0
FLAG 800 -928 vcc3
FLAG 800 -896 vcc3
SYMBOL res -2336 -1872 R90
WINDOW 0 0 56 VBottom 2
WINDOW 3 32 56 VTop 2
SYMATTR InstName Rg1
SYMATTR Value 49.9
SYMBOL res -2800 -1984 R90
WINDOW 0 0 56 VBottom 2
WINDOW 3 32 56 VTop 2
SYMATTR InstName Rin1
SYMATTR Value 50
SYMBOL Misc\\battery -1248 -3360 R0
WINDOW 123 0 0 Left 0
WINDOW 39 0 0 Left 0
WINDOW 0 49 53 Left 2
SYMATTR InstName Vee1
SYMATTR Value -5
SYMBOL Misc\\battery -1728 -3376 R0
WINDOW 0 -139 46 Left 2
SYMATTR InstName Vcc1
SYMATTR Value 5
SYMBOL cap -1664 -3360 R0
WINDOW 0 -30 -15 Left 2
SYMATTR InstName Csupout1
SYMATTR Value 100n
SYMBOL cap -1344 -3344 R0
WINDOW 0 -46 -14 Left 2
SYMATTR InstName Csupout2
SYMATTR Value 100n
SYMBOL res -1904 -2080 R90
WINDOW 0 0 56 VBottom 2
WINDOW 3 32 56 VTop 2
SYMATTR InstName Rf1
SYMATTR Value 348
SYMBOL res -1904 -2176 R90
WINDOW 0 0 56 VBottom 2
WINDOW 3 32 56 VTop 2
SYMATTR InstName Rf2
SYMATTR Value 348
SYMBOL res -1616 -1952 R90
WINDOW 0 0 56 VBottom 2
WINDOW 3 32 56 VTop 2
SYMATTR InstName Rg2
SYMATTR Value 24.9
SYMBOL res -1616 -1824 R90
WINDOW 0 0 56 VBottom 2
WINDOW 3 32 56 VTop 2
SYMATTR InstName Rg3
SYMATTR Value 24.9
SYMBOL Opamps\\LTC6419 -2112 -1888 R0
SYMATTR InstName U1
SYMBOL res -2336 -1984 R90
WINDOW 0 0 56 VBottom 2
WINDOW 3 32 56 VTop 2
SYMATTR InstName Rg4
SYMATTR Value 49.9
SYMBOL res -1312 -2064 R90
WINDOW 0 0 56 VBottom 2
WINDOW 3 32 56 VTop 2
SYMATTR InstName Rf3
SYMATTR Value 2.49k
SYMBOL res -1312 -2160 R90
WINDOW 0 0 56 VBottom 2
WINDOW 3 32 56 VTop 2
SYMATTR InstName Rf4
SYMATTR Value 2.49k
SYMBOL Opamps\\LTC6419 -1440 -1872 R0
SYMATTR InstName U2
SYMBOL Comparators\\LTC6752-2 1632 -1984 R0
SYMATTR InstName U3
SYMBOL res 1808 -2000 R0
SYMATTR InstName R1
SYMATTR Value 100Meg
SYMBOL Misc\\battery 1424 -2480 R0
WINDOW 123 0 0 Left 0
WINDOW 39 0 0 Left 0
WINDOW 0 -115 47 Left 2
SYMATTR InstName Vee2
SYMATTR Value -15
SYMBOL Misc\\battery 896 -2480 R0
WINDOW 0 -108 54 Left 2
SYMATTR InstName Vcc2
SYMATTR Value 15
SYMBOL cap 960 -2464 R0
WINDOW 0 16 -14 Left 2
SYMATTR InstName C1
SYMATTR Value 100n
SYMBOL cap 1520 -2464 R0
WINDOW 0 11 -18 Left 2
SYMATTR InstName C2
SYMATTR Value 100n
SYMBOL res 1456 -1792 R180
WINDOW 0 36 76 Left 2
WINDOW 3 36 40 Left 2
SYMATTR InstName Rcomp1
SYMATTR Value 481k
SYMBOL Misc\\battery -624 -3392 R0
WINDOW 0 -144 55 Left 2
SYMATTR InstName Vcc3
SYMATTR Value 3.3
SYMBOL cap -560 -3376 R0
SYMATTR InstName Csupout3
SYMATTR Value 100n
SYMBOL cap -1952 -2352 R90
WINDOW 0 0 32 VBottom 2
WINDOW 3 32 32 VTop 2
SYMATTR InstName Cf1
SYMATTR Value 1p
SYMBOL cap -1952 -2448 R90
WINDOW 0 0 32 VBottom 2
WINDOW 3 32 32 VTop 2
SYMATTR InstName Cf2
SYMATTR Value 1p
SYMBOL res -2560 -1984 R0
SYMATTR InstName R2
SYMATTR Value 115
SYMBOL res -2496 -1824 R0
SYMATTR InstName R3
SYMATTR Value 34.8
SYMBOL res 1344 -2128 R0
SYMATTR InstName R4
SYMATTR Value 12
SYMBOL res 1344 -2016 R0
SYMATTR InstName R5
SYMATTR Value 12
SYMBOL cap 1056 -2464 R0
SYMATTR InstName C3
SYMATTR Value 10µ
SYMBOL cap 1616 -2464 R0
SYMATTR InstName C4
SYMATTR Value 10µ
SYMBOL Misc\\battery -2368 -3344 R0
WINDOW 123 0 0 Left 0
WINDOW 39 0 0 Left 0
WINDOW 0 49 53 Left 2
SYMATTR InstName Vee3
SYMATTR Value -2.5
SYMBOL Misc\\battery -3008 -3360 R0
WINDOW 0 -139 46 Left 2
SYMATTR InstName Vcc4
SYMATTR Value 2.5
SYMBOL cap -2944 -3344 R0
WINDOW 0 -30 -15 Left 2
SYMATTR InstName Csupout4
SYMATTR Value 100n
SYMBOL cap -2464 -3328 R0
WINDOW 0 -46 -14 Left 2
SYMATTR InstName Csupout5
SYMATTR Value 100n
SYMBOL filters_diff -32 -1984 R0
SYMATTR InstName X1
SYMBOL cap -2640 -1984 R90
WINDOW 0 0 32 VBottom 2
WINDOW 3 32 32 VTop 2
SYMATTR InstName C5
SYMATTR Value 330µ
SYMBOL cap -1792 -1952 R90
WINDOW 0 0 32 VBottom 2
WINDOW 3 32 32 VTop 2
SYMATTR InstName C6
SYMATTR Value 330µ
SYMBOL cap -1792 -1824 R90
WINDOW 0 0 32 VBottom 2
WINDOW 3 32 32 VTop 2
SYMATTR InstName C7
SYMATTR Value 330µ
SYMBOL bv -3008 -3152 R0
SYMATTR InstName Vcc5
SYMATTR Value V=V(Vcc2_fix)+V(Vcc2_n)
SYMBOL bv -2368 -3152 R0
SYMATTR InstName Vee4
SYMATTR Value V=V(Vee2_fix)+V(Vee2_n)
SYMBOL bv -3008 -2960 R0
SYMATTR InstName Vcc6
SYMATTR Value V=((white(1e5*time))/(13333))
SYMBOL bv -2384 -2960 R0
SYMATTR InstName Vee5
SYMATTR Value V=((white(1e5*time))/(28571))
SYMBOL bv -1728 -3168 R0
SYMATTR InstName Vcc7
SYMATTR Value V=V(Vcc5_fix)+V(Vcc5_n)
SYMBOL bv -1728 -2976 R0
SYMATTR InstName Vcc8
SYMATTR Value V=((white(1e5*time))/(3448))
SYMBOL bv -1248 -3168 R0
SYMATTR InstName Vee6
SYMATTR Value V=V(Vee5_fix)+V(Vee5_n)
SYMBOL bv -1248 -2976 R0
SYMATTR InstName Vee7
SYMATTR Value V=((white(1e5*time))/(1000))
SYMBOL bv -624 -3184 R0
SYMATTR InstName Vcc9
SYMATTR Value V=V(Vcc3_fix)+V(Vcc3_n)
SYMBOL bv -624 -2992 R0
SYMATTR InstName Vcc10
SYMATTR Value V=((white(1e5*time))/(3448))
SYMBOL voltage -3088 -1872 R0
WINDOW 123 24 124 Left 2
WINDOW 39 0 0 Left 0
SYMATTR Value2 AC 1
SYMATTR InstName V1
SYMATTR Value ""
SYMBOL AutoGenerated\\ADG1421 -752 -2128 R0
SYMATTR InstName U4
SYMBOL AutoGenerated\\ADG1421 -752 -1792 R0
SYMATTR InstName U5
SYMBOL AutoGenerated\\ADG1421 -752 -1488 R0
SYMATTR InstName U6
SYMBOL AutoGenerated\\ADG1421 -752 -1184 R0
SYMATTR InstName U7
SYMBOL AutoGenerated\\ADG1421 -752 -848 R0
SYMATTR InstName U8
SYMBOL AutoGenerated\\ADG1421 832 -2128 R0
SYMATTR InstName U9
SYMBOL AutoGenerated\\ADG1421 832 -1824 R0
SYMATTR InstName U10
SYMBOL AutoGenerated\\ADG1421 848 -1520 R0
SYMATTR InstName U11
SYMBOL AutoGenerated\\ADG1421 832 -1264 R0
SYMATTR InstName U12
SYMBOL AutoGenerated\\ADG1421 864 -944 R0
SYMATTR InstName U13
TEXT -3224 -1600 Left 2 !.ac dec 1Meg 500m 1000Meg
