Version 4
SHEET 1 7988 2640
WIRE 1408 -400 1408 -464
WIRE 1488 -400 1408 -400
WIRE 1808 -400 1808 -464
WIRE 1808 -400 1728 -400
WIRE 80 -384 80 -448
WIRE 160 -384 80 -384
WIRE 480 -384 480 -448
WIRE 480 -384 400 -384
WIRE 2528 -384 2528 -448
WIRE 2608 -384 2528 -384
WIRE 3744 -336 3744 -400
WIRE 3824 -336 3744 -336
WIRE 3920 -336 3824 -336
WIRE 4272 -336 4272 -400
WIRE 4384 -336 4272 -336
WIRE 4480 -336 4384 -336
WIRE 1488 -320 1488 -336
WIRE 1728 -320 1728 -336
WIRE 160 -304 160 -320
WIRE 400 -304 400 -320
WIRE 832 -304 816 -304
WIRE 912 -304 896 -304
WIRE 2608 -304 2608 -320
WIRE 3824 -256 3824 -272
WIRE 3920 -256 3920 -272
WIRE 4384 -256 4384 -272
WIRE 4480 -256 4480 -272
WIRE 832 -208 816 -208
WIRE 912 -208 896 -208
WIRE 848 -32 832 -32
WIRE 944 -32 928 -32
WIRE 1440 -16 1424 -16
WIRE 1536 -16 1520 -16
WIRE 848 64 832 64
WIRE 944 64 928 64
WIRE 1440 80 1424 80
WIRE 1536 80 1520 80
WIRE 4352 96 4208 96
WIRE 4672 112 4608 112
WIRE 4352 128 4208 128
WIRE 4672 144 4672 112
WIRE -128 160 -208 160
WIRE -48 160 -128 160
WIRE 48 160 32 160
WIRE 144 160 48 160
WIRE 304 160 208 160
WIRE 416 160 304 160
WIRE 1088 192 1056 192
WIRE 1136 192 1088 192
WIRE -208 208 -208 160
WIRE 4352 224 4288 224
WIRE 4288 240 4288 224
WIRE 4672 256 4672 224
WIRE 416 272 368 272
WIRE 4528 288 4528 256
WIRE -208 304 -208 288
WIRE 368 320 368 272
WIRE 1088 320 1056 320
WIRE 1136 320 1088 320
WIRE 368 416 368 400
FLAG 496 272 In-
FLAG 496 160 In+
FLAG -208 304 0
FLAG 1408 -320 0
FLAG 1808 -320 0
FLAG 1488 -320 0
FLAG 1728 -320 0
FLAG 1408 -464 vcc5
FLAG 1808 -464 vee5
FLAG 944 64 Out+
FLAG 944 -32 Out-
FLAG 672 208 In-
FLAG 672 272 In+
FLAG 1216 320 In2-
FLAG 1216 192 In2+
FLAG 1088 192 C2out+
FLAG 1088 320 C2out-
FLAG 992 192 Out+
FLAG 992 320 Out-
FLAG 672 240 0
FLAG 736 320 vcc2
FLAG 832 208 Out+
FLAG 832 272 Out-
FLAG 48 160 C1in
FLAG 304 160 C1out
FLAG 1536 80 Out2+
FLAG 1536 -16 Out2-
FLAG 1344 256 0
FLAG 1504 224 Out2+
FLAG 1504 288 Out2-
FLAG 4432 32 vcc5
FLAG 4528 32 vcc3
FLAG 4528 288 0
FLAG 4672 256 0
FLAG 4672 112 Vout
FLAG 4208 96 compin-
FLAG 4208 128 compin+
FLAG 3744 -256 0
FLAG 4272 -256 0
FLAG 3744 -400 vcc15
FLAG 4272 -400 vee15
FLAG 3824 -256 0
FLAG 4384 -256 0
FLAG 2656 0 filter_in_10k+
FLAG 2656 32 filter_in_10k-
FLAG 2656 64 filter_in_100k+
FLAG 2656 128 filter_in_1Meg+
FLAG 2656 192 filter_in_10Meg+
FLAG 2656 256 filter_in_100Meg+
FLAG 2656 96 filter_in_100k-
FLAG 2656 160 filter_in_1Meg-
FLAG 2656 288 filter_in_100Meg-
FLAG 2656 224 filter_in_10Meg-
FLAG 2992 0 filter_out_10k+
FLAG 2992 32 filter_out_10k-
FLAG 2992 64 filter_out_100k+
FLAG 2992 128 filter_out_1Meg+
FLAG 2992 192 filter_out_10Meg+
FLAG 2992 256 filter_out_100Meg+
FLAG 2992 96 filter_out_100k-
FLAG 2992 160 filter_out_1Meg-
FLAG 2992 288 filter_out_100Meg-
FLAG 2992 224 filter_out_10Meg-
FLAG 4352 176 vcc
FLAG 4288 320 0
FLAG 2528 -304 0
FLAG 2608 -304 0
FLAG 2528 -448 vcc3
FLAG -128 160 Vin
FLAG 912 -208 Out-
FLAG 912 -304 Out+
FLAG 304 240 0
FLAG 816 -208 In+
FLAG 816 -304 In-
FLAG 832 -32 In+
FLAG 832 64 In-
FLAG 1344 224 In2-
FLAG 1424 -16 In2+
FLAG 1424 80 In2-
FLAG 368 416 0
FLAG 4208 208 0
FLAG 4208 16 0
FLAG 2032 1232 Out2+
FLAG 2032 1264 Out2-
FLAG 2032 1296 vcc3
FLAG 2032 1328 vcc3
FLAG 2176 1216 filter_in_100Meg+
FLAG 2176 1248 filter_in_100Meg-
FLAG 3648 1200 vcc3
FLAG 3648 1232 vcc3
FLAG 3792 1120 compin+
FLAG 3792 1152 compin-
FLAG 3648 1136 filter_out_100Meg+
FLAG 3648 1168 filter_out_100Meg-
FLAG 2032 896 Out2+
FLAG 2032 928 Out2-
FLAG 2176 880 filter_in_10Meg+
FLAG 2176 912 filter_in_10Meg-
FLAG 2032 960 0
FLAG 2032 992 0
FLAG 3760 800 compin+
FLAG 3760 832 compin-
FLAG 3616 816 filter_out_10Meg+
FLAG 3616 848 filter_out_10Meg-
FLAG 3616 912 0
FLAG 3616 880 0
FLAG 2032 592 Out2+
FLAG 2032 624 Out2-
FLAG 2176 576 filter_in_1Meg+
FLAG 2176 608 filter_in_1Meg-
FLAG 2032 288 Out2+
FLAG 2032 320 Out2-
FLAG 2176 272 filter_in_100k+
FLAG 2176 304 filter_in_100k-
FLAG 2032 352 0
FLAG 2032 384 0
FLAG 2032 656 0
FLAG 2032 688 0
FLAG 3776 544 compin+
FLAG 3776 576 compin-
FLAG 3760 240 compin+
FLAG 3760 272 compin-
FLAG 3616 352 0
FLAG 3616 320 0
FLAG 3632 560 filter_out_1Meg+
FLAG 3632 592 filter_out_1Meg-
FLAG 3632 624 0
FLAG 3632 656 0
FLAG 3616 256 filter_out_100k+
FLAG 3616 288 filter_out_100k-
FLAG 2032 -48 Out2+
FLAG 2032 -16 Out2-
FLAG 2176 -64 filter_in_10k+
FLAG 2176 -32 filter_in_10k-
FLAG 3760 -64 compin+
FLAG 3760 -32 compin-
FLAG 3616 48 0
FLAG 3616 16 0
FLAG 3616 -48 filter_out_10k+
FLAG 3616 -16 filter_out_10k-
FLAG 2176 640 vcc15
FLAG 2176 672 0
FLAG 2176 704 vee15
FLAG 3920 -256 0
FLAG 4480 -256 0
FLAG 80 -304 0
FLAG 480 -304 0
FLAG 160 -304 0
FLAG 400 -304 0
FLAG 80 -448 vcc2
FLAG 480 -448 vee2
FLAG 2032 16 0
FLAG 2032 48 0
FLAG 2176 336 vcc15
FLAG 2176 368 0
FLAG 2176 400 vee15
FLAG 2176 0 vcc15
FLAG 2176 32 0
FLAG 2176 64 vee15
FLAG 2176 944 vcc15
FLAG 2176 976 0
FLAG 2176 1008 vee15
FLAG 2176 1280 vcc15
FLAG 2176 1312 0
FLAG 2176 1344 vee15
FLAG 3760 0 vcc15
FLAG 3760 32 0
FLAG 3760 64 vee15
FLAG 3760 304 vcc15
FLAG 3760 336 0
FLAG 3760 368 vee15
FLAG 3792 1184 vcc15
FLAG 3792 1216 0
FLAG 3792 1248 vee15
FLAG 3760 864 vcc15
FLAG 3760 896 0
FLAG 3760 928 vee15
FLAG 3776 608 vcc15
FLAG 3776 640 0
FLAG 3776 672 vee15
FLAG 1376 336 vee2
FLAG 1376 176 vcc2
FLAG 1408 336 vcc2
FLAG 704 320 vee2
FLAG 704 160 vcc2
FLAG 1344 288 In2+
SYMBOL res 512 256 R90
WINDOW 0 0 56 VBottom 2
WINDOW 3 32 56 VTop 2
SYMATTR InstName Rg1-
SYMATTR Value 49.9
SYMBOL res 48 144 R90
WINDOW 0 0 56 VBottom 2
WINDOW 3 32 56 VTop 2
SYMATTR InstName Rin
SYMATTR Value 50
SYMBOL Misc\\battery 1808 -416 R0
WINDOW 123 0 0 Left 0
WINDOW 39 0 0 Left 0
WINDOW 0 49 53 Left 2
SYMATTR InstName Vee5_fix
SYMATTR Value -5
SYMBOL Misc\\battery 1408 -416 R0
WINDOW 0 -139 46 Left 2
SYMATTR InstName Vcc5_fix
SYMATTR Value 5
SYMBOL cap 1472 -400 R0
WINDOW 0 -30 -15 Left 2
SYMATTR InstName Csupout1
SYMATTR Value 100n
SYMBOL cap 1712 -400 R0
WINDOW 0 -46 -14 Left 2
SYMATTR InstName Csupout2
SYMATTR Value 100n
SYMBOL res 944 48 R90
WINDOW 0 0 56 VBottom 2
WINDOW 3 32 56 VTop 2
SYMATTR InstName Rf-
SYMATTR Value 348
SYMBOL res 944 -48 R90
WINDOW 0 0 56 VBottom 2
WINDOW 3 32 56 VTop 2
SYMATTR InstName Rf+
SYMATTR Value 348
SYMBOL res 1232 176 R90
WINDOW 0 0 56 VBottom 2
WINDOW 3 32 56 VTop 2
SYMATTR InstName Rg2+
SYMATTR Value 24.9
SYMBOL res 1232 304 R90
WINDOW 0 0 56 VBottom 2
WINDOW 3 32 56 VTop 2
SYMATTR InstName Rg2-
SYMATTR Value 24.9
SYMBOL Opamps\\LTC6419 736 240 R0
SYMATTR InstName U3
SYMBOL res 512 144 R90
WINDOW 0 0 56 VBottom 2
WINDOW 3 32 56 VTop 2
SYMATTR InstName Rg1+
SYMATTR Value 49.9
SYMBOL res 1536 64 R90
WINDOW 0 0 56 VBottom 2
WINDOW 3 32 56 VTop 2
SYMATTR InstName Rf2-
SYMATTR Value 2.49k
SYMBOL res 1536 -32 R90
WINDOW 0 0 56 VBottom 2
WINDOW 3 32 56 VTop 2
SYMATTR InstName Rf2+
SYMATTR Value 2.49k
SYMBOL Opamps\\LTC6419 1408 256 R0
SYMATTR InstName U2
SYMBOL Comparators\\LTC6752-2 4480 144 R0
SYMATTR InstName U5
SYMBOL res 4656 128 R0
SYMATTR InstName R5
SYMATTR Value 100Meg
SYMBOL Misc\\battery 4272 -352 R0
WINDOW 123 0 0 Left 0
WINDOW 39 0 0 Left 0
WINDOW 0 -115 47 Left 2
SYMATTR InstName Vee15
SYMATTR Value -15
SYMBOL Misc\\battery 3744 -352 R0
WINDOW 0 -108 54 Left 2
SYMATTR InstName Vcc15
SYMATTR Value 15
SYMBOL cap 3808 -336 R0
WINDOW 0 16 -14 Left 2
SYMATTR InstName C15_1
SYMATTR Value 100n
SYMBOL cap 4368 -336 R0
WINDOW 0 11 -18 Left 2
SYMATTR InstName C15_3
SYMATTR Value 100n
SYMBOL res 4304 336 R180
WINDOW 0 36 76 Left 2
WINDOW 3 36 40 Left 2
SYMATTR InstName Rcomp1
SYMATTR Value 481k
SYMBOL Misc\\battery 2528 -400 R0
WINDOW 0 -144 55 Left 2
SYMATTR InstName Vcc3_fix
SYMATTR Value 3.3
SYMBOL cap 2592 -384 R0
SYMATTR InstName Csupout3
SYMATTR Value 100n
SYMBOL cap 896 -224 R90
WINDOW 0 0 32 VBottom 2
WINDOW 3 32 32 VTop 2
SYMATTR InstName Cf-
SYMATTR Value 1p
SYMBOL cap 896 -320 R90
WINDOW 0 0 32 VBottom 2
WINDOW 3 32 32 VTop 2
SYMATTR InstName Cf+
SYMATTR Value 1p
SYMBOL res 288 144 R0
SYMATTR InstName R1
SYMATTR Value 115
SYMBOL res 352 304 R0
SYMATTR InstName R2
SYMATTR Value 34.8
SYMBOL voltage -208 192 R0
WINDOW 123 0 0 Left 0
WINDOW 39 0 0 Left 0
SYMATTR InstName V1
SYMATTR Value PWL file=PRBS100M_HV_15.txt
SYMBOL res 4192 0 R0
SYMATTR InstName R3
SYMATTR Value 12
SYMBOL res 4192 112 R0
SYMATTR InstName R4
SYMATTR Value 12
SYMBOL cap 3904 -336 R0
SYMATTR InstName C15_2
SYMATTR Value 10µ
SYMBOL cap 4464 -336 R0
SYMATTR InstName C15_4
SYMATTR Value 10µ
SYMBOL Misc\\battery 480 -400 R0
WINDOW 123 0 0 Left 0
WINDOW 39 0 0 Left 0
WINDOW 0 49 53 Left 2
SYMATTR InstName Vee2
SYMATTR Value -2.5
SYMBOL Misc\\battery 80 -400 R0
WINDOW 0 -139 46 Left 2
SYMATTR InstName Vcc2_fix
SYMATTR Value 2.5
SYMBOL cap 144 -384 R0
WINDOW 0 -30 -15 Left 2
SYMATTR InstName Csupout4
SYMATTR Value 100n
SYMBOL cap 384 -384 R0
WINDOW 0 -46 -14 Left 2
SYMATTR InstName Csupout5
SYMATTR Value 100n
SYMBOL AutoGenerated\\ADG1421 2096 0 R0
SYMATTR InstName U15
SYMBOL AutoGenerated\\ADG1421 2096 336 R0
SYMATTR InstName U12
SYMBOL AutoGenerated\\ADG1421 2096 640 R0
SYMATTR InstName U7
SYMBOL AutoGenerated\\ADG1421 2096 944 R0
SYMATTR InstName U9
SYMBOL AutoGenerated\\ADG1421 2096 1280 R0
SYMATTR InstName U11
SYMBOL AutoGenerated\\ADG1421 3680 0 R0
SYMATTR InstName U8
SYMBOL AutoGenerated\\ADG1421 3680 304 R0
SYMATTR InstName U10
SYMBOL AutoGenerated\\ADG1421 3696 608 R0
SYMATTR InstName U13
SYMBOL AutoGenerated\\ADG1421 3680 864 R0
SYMATTR InstName U14
SYMBOL AutoGenerated\\ADG1421 3712 1184 R0
SYMATTR InstName U16
SYMBOL filters_diff 2816 144 R0
SYMATTR InstName X2
SYMBOL cap 208 144 R90
WINDOW 0 0 32 VBottom 2
WINDOW 3 32 32 VTop 2
SYMATTR InstName C1
SYMATTR Value 330µ
SYMBOL cap 1056 176 R90
WINDOW 0 0 32 VBottom 2
WINDOW 3 32 32 VTop 2
SYMATTR InstName C2+
SYMATTR Value 330µ
SYMBOL cap 1056 304 R90
WINDOW 0 0 32 VBottom 2
WINDOW 3 32 32 VTop 2
SYMATTR InstName C2-
SYMATTR Value 330µ
TEXT -1512 872 Left 2 ;10 kbps, HV
TEXT -1520 912 Left 2 ;.ic V(c1in)=1.7083747 V(c1out)=698.58018m V(out+)=1.8483997 V(out-)=-1.8481929 V(c2out+)=1.6771064 V(c2out-)=-1.5159541\n.tran 0 400m 200u\n;.options baudrate=10k
TEXT -1520 712 Left 2 ;10 kbps, LV
TEXT -1520 752 Left 2 ;.ic V(c1in)=85.882363u V(c1out)=2.5671821m V(out+)=4.0210462m V(out-)=-4.0210147m V(c2out+)=81.964058m V(c2out-)=81.795449m\n.tran 0 500m 200m\n;.options baudrate=10k
TEXT -1512 1080 Left 2 ;.ic V(c1in)=271.93431u V(c1out)=2.6350684m V(out+)=4.2009208m V(out-)=-4.2008911m V(c2out+)=82.115871m V(c2out-)=81.643636m\n.tran 0 200m 0\n.options baudrate=100k
TEXT -1512 1040 Left 2 ;100 kbps, LV
TEXT -1512 1248 Left 2 ;.ic V(c1in)=1.7485169 V(c1out)=641.67626m V(out+)=1.6976086 V(out-)=-1.6976053 V(c2out+)=1.6680744 V(c2out-)=-1.510416\n.tran 0 200m 0\n.options baudrate=100k
TEXT -1512 1208 Left 2 ;100 kbps, HV
TEXT -1512 1416 Left 2 ;.ic V(c1in)=872.9669u V(c1out)=2.8572821m V(out+)=4.7897487m V(out-)=-4.7897175m V(c2out+)=82.659803m V(c2out-)=81.099705m\n.tran 0 40m 0\n.options baudrate=1Meg
TEXT -1512 1376 Left 2 ;1 Mbps, LV
TEXT -1512 1584 Left 2 ;.ic V(c1in)=1.7470225 V(c1out)=643.7919m V(out+)=1.7032157 V(out-)=-1.7032125 V(c2out+)=1.6767545 V(c2out-)=-1.5174589\n.tran 0 40m 0\n.options baudrate=1Meg
TEXT -1512 1544 Left 2 ;1 Mbps, HV
TEXT 104 776 Left 2 ;.ic V(c1in)=2.6761521m V(c1out)=3.5606082m V(out+)=6.6534474m V(out-)=-6.6534129m V(c2out+)=84.56589m V(c2out-)=79.193622m\n.tran 0 4m 0\n.options baudrate=10Meg
TEXT 104 736 Left 2 ;10 Mbps, LV
TEXT 104 944 Left 2 ;.ic V(c1in)=1.7381691 V(c1out)=656.32561m V(out+)=1.7364379 V(out-)=-1.7364348 V(c2out+)=1.7511915 V(c2out-)=-1.5761565\n.tran 0 4m 0\n.options baudrate=10Meg
TEXT 104 904 Left 2 ;10 Mbps, HV
TEXT 104 1112 Left 2 ;.ic V(c1in)=73.618069m V(c1out)=30.734859m V(out+)=79.25504m V(out-)=-78.64824m V(c2out+)=173.6801m V(c2out-)=25.233701m\n.tran 0 400u 2u\n.options baudrate=100Meg
TEXT 104 1072 Left 2 ;100 Mbps, LV
TEXT 104 1280 Left 2 !.ic V(c1in)=1.6699772 V(c1out)=589.50001m V(out+)=1.5997523 V(out-)=-1.5996676 V(c2out+)=1.5014662 V(c2out-)=-1.3375862\n.tran 0 400u 2u\n.options baudrate=100Meg
TEXT 104 1240 Left 2 ;100 Mbps, HV
TEXT -512 552 Left 2 ;PWL file=PRBS10k_LV_15.txt
