Version 4
SHEET 1 1368 700
FLAG 768 96 filter_out5+
FLAG 768 128 filter_out5-
FLAG -416 -96 vin+
FLAG -416 -16 vin-
FLAG -32 -448 vin+
FLAG -32 -416 vin-
FLAG 112 -464 filter_in1+
FLAG 112 -432 filter_in1-
FLAG -1184 256 0
FLAG -1072 256 0
FLAG 112 -400 vdd
FLAG -1184 176 vdd
FLAG -1072 176 vss
FLAG 112 -336 vss
FLAG -816 272 0
FLAG -816 192 von
FLAG 112 -224 filter_in2+
FLAG 112 -192 filter_in2-
FLAG 112 16 filter_in3+
FLAG 112 48 filter_in3-
FLAG 112 256 filter_in4+
FLAG 112 288 filter_in4-
FLAG 112 496 filter_in5+
FLAG 112 528 filter_in5-
FLAG 432 -160 filter_in1+
FLAG 432 -128 filter_in1-
FLAG 432 -96 filter_in2+
FLAG 432 -64 filter_in2-
FLAG 432 -32 filter_in3+
FLAG 432 0 filter_in3-
FLAG 432 32 filter_in4+
FLAG 432 64 filter_in4-
FLAG 432 96 filter_in5+
FLAG 432 128 filter_in5-
FLAG 768 -160 filter_out1+
FLAG 768 -128 filter_out1-
FLAG 768 -96 filter_out2+
FLAG 768 -64 filter_out2-
FLAG 768 -32 filter_out3+
FLAG 768 0 filter_out3-
FLAG 768 32 filter_out4+
FLAG 768 64 filter_out4-
FLAG 1136 -432 filter_out1+
FLAG 1136 -400 filter_out1-
FLAG 1136 -160 filter_out2-
FLAG 1136 48 filter_out3+
FLAG 1136 80 filter_out3-
FLAG 1136 288 filter_out4+
FLAG 1136 320 filter_out4-
FLAG 1136 -192 filter_out2+
FLAG 1136 528 filter_out5+
FLAG 1136 560 filter_out5-
FLAG 112 -368 0
FLAG -32 -208 vin+
FLAG -32 -176 vin-
FLAG -32 32 vin+
FLAG -32 64 vin-
FLAG -32 272 vin+
FLAG -32 304 vin-
FLAG -32 512 vin+
FLAG -32 544 vin-
FLAG 112 -160 vdd
FLAG 112 -96 vss
FLAG 112 -128 0
FLAG 112 320 vdd
FLAG 112 384 vss
FLAG 112 352 0
FLAG 112 560 vdd
FLAG 112 624 vss
FLAG 112 592 0
FLAG 112 80 vdd
FLAG 112 144 vss
FLAG 112 112 0
FLAG 1280 -384 vdd
FLAG 1280 -320 vss
FLAG 1280 -352 0
FLAG 1280 -448 vout+
FLAG 1280 -416 vout-
FLAG 1280 -144 vdd
FLAG 1280 -80 vss
FLAG 1280 -112 0
FLAG 1280 -208 vout+
FLAG 1280 -176 vout-
FLAG 1280 96 vdd
FLAG 1280 160 vss
FLAG 1280 128 0
FLAG 1280 32 vout+
FLAG 1280 64 vout-
FLAG 1280 336 vdd
FLAG 1280 400 vss
FLAG 1280 368 0
FLAG 1280 272 vout+
FLAG 1280 304 vout-
FLAG 1280 576 vdd
FLAG 1280 640 vss
FLAG 1280 608 0
FLAG 1280 512 vout+
FLAG 1280 544 vout-
FLAG -32 -112 0
FLAG -32 -144 0
FLAG 1136 -128 0
FLAG 1136 -96 0
FLAG -32 -384 von
FLAG -32 336 0
FLAG -32 368 0
FLAG 1136 352 0
FLAG 1136 384 0
FLAG -32 96 0
FLAG -32 128 0
FLAG 1136 112 0
FLAG 1136 144 0
FLAG -32 576 0
FLAG -32 608 0
FLAG 1136 592 0
FLAG 1136 624 0
FLAG -32 -352 von
FLAG 1136 -368 von
FLAG 1136 -336 von
SYMBOL voltage -416 -112 R0
WINDOW 123 24 124 Left 2
WINDOW 39 0 0 Left 0
WINDOW 3 24 44 Left 2
SYMATTR Value2 AC 1
SYMATTR Value 1
SYMATTR InstName V1
SYMBOL filters_diff 592 -16 R0
SYMATTR InstName X1
SYMBOL Misc\\battery -1184 160 R0
WINDOW 123 0 0 Left 0
WINDOW 39 0 0 Left 0
SYMATTR InstName V2
SYMATTR Value 15
SYMBOL Misc\\battery -1072 160 R0
WINDOW 123 0 0 Left 0
WINDOW 39 0 0 Left 0
SYMATTR InstName V3
SYMATTR Value -15
SYMBOL Misc\\battery -816 176 R0
WINDOW 123 0 0 Left 0
WINDOW 39 0 0 Left 0
SYMATTR InstName V4
SYMATTR Value 3.3
SYMBOL AutoGenerated\\ADG1421 32 -400 R0
SYMATTR InstName U1
SYMBOL AutoGenerated\\ADG1421 32 -160 R0
SYMATTR InstName U2
SYMBOL AutoGenerated\\ADG1421 32 80 R0
SYMATTR InstName U3
SYMBOL AutoGenerated\\ADG1421 32 320 R0
SYMATTR InstName U4
SYMBOL AutoGenerated\\ADG1421 32 560 R0
SYMATTR InstName U5
SYMBOL AutoGenerated\\ADG1421 1200 -384 R0
SYMATTR InstName U6
SYMBOL AutoGenerated\\ADG1421 1200 -144 R0
SYMATTR InstName U7
SYMBOL AutoGenerated\\ADG1421 1200 96 R0
SYMATTR InstName U8
SYMBOL AutoGenerated\\ADG1421 1200 336 R0
SYMATTR InstName U9
SYMBOL AutoGenerated\\ADG1421 1200 576 R0
SYMATTR InstName U10
TEXT -880 -80 Left 2 !.ac dec 1Meg 10 200Meg
